%mem=25GB
%chk=mol94.chk

#RHF/STO-3G int=nobasistransform Symmetry=None 5D 7F Pop=NBO7Read 

mol94-NBO

0 1
C .000000 .000000 .341023
H .000000 .000000 1.429485
F .000000 1.258200 -.128727
F 1.089633 -.629100 -.128727
F -1.089633 -.629100 -.128727

$nbo BOAO SAO SPNAO DMPNAO DMNAO DMMO DMAO AOMO AOPNAO AONAO DETAIL ARCHIVE FILE=mol94.gen* AOINFO NPA $end
