%mem=25GB
%chk=CH3BH2.chk

#OPT=VeryTight Int=UltraFine RHF/STO-3G Pop=NBO7Read

NBO-CH3BH2

0 1
C     0.000000     0.000000     0.000000
H     0.000000     0.000000     1.070000
H     1.008807     0.000000    -0.356663
H    -0.504401     0.873651    -0.356669
B    -0.688249    -1.192085    -0.486669
H    -1.659343    -1.192085    -0.143340
H    -0.688245    -1.192085    -1.516669

$nbo BOAO SAO SPNAO DMPNAO DMNAO DMMO DMAO AOMO AOPNAO AONAO AONO DETAIL ARCHIVE FILE=CH3BH2 AOINFO NPA $end
