%mem=25GB
%chk=mol55.chk

#RHF/6-31G* int=nobasistransform Symmetry=None 5D 7F Pop=NBO7Read 

mol55-NBO

0 1
B .000000 .000000 .000000
F .000000 1.321760 .000000
F 1.144678 -.660880 .000000
F -1.144678 -.660880 .000000

$nbo BOAO SAO SPNAO DMPNAO DMNAO DMMO DMAO AOMO AOPNAO AONAO DETAIL ARCHIVE FILE=mol55.gen* AOINFO NPA $end
