%mem=25GB
%chk=mol50.chk

#RHF/6-31G* int=nobasistransform Symmetry=None 5D 7F Pop=NBO7Read 

mol50-NBO

0 1
Si .000000 .000000 1.167683
Si .000000 .000000 -1.167683
H .000000 1.393286 1.686020
H -1.206621 -.696643 1.686020
H 1.206621 -.696643 1.686020
H .000000 -1.393286 -1.686020
H -1.206621 .696643 -1.686020
H 1.206621 .696643 -1.686020

$nbo BOAO SAO SPNAO DMPNAO DMNAO DMMO DMAO AOMO AOPNAO AONAO DETAIL ARCHIVE FILE=mol50.gen* AOINFO NPA $end
