%mem=25GB
%chk=mol79.chk

#RHF/STO-3G int=nobasistransform Symmetry=None 5D 7F Pop=NBO7Read 

mol79-NBO

0 1
C 1.291290 .133682 .000000
C .000000 .479159 .000000
H 1.601160 -.907420 .000000
H 2.080800 .877337 .000000
H -.263221 1.536098 .000000
C -1.139757 -.492341 .000000
H -.776859 -1.523291 .000000
H -1.775540 -.352861 .880420
H -1.775540 -.352861 -.880420

$nbo BOAO SAO SPNAO DMPNAO DMNAO DMMO DMAO AOMO AOPNAO AONAO DETAIL ARCHIVE FILE=mol79.gen* AOINFO NPA $end
