%mem=25GB
%chk=mol63.chk

#RHF/6-31G* int=nobasistransform Symmetry=None 5D 7F Pop=NBO7Read 

mol63-NBO

0 1
O .000000 .000000 1.330715
C .000000 .000000 .144358
F .000000 1.069490 -.639548
F .000000 -1.069490 -.639548

$nbo BOAO SAO SPNAO DMPNAO DMNAO DMMO DMAO AOMO AOPNAO AONAO DETAIL ARCHIVE FILE=mol63.gen* AOINFO NPA $end
