%mem=25GB
%chk=mol16.chk

#RHF/6-31G* int=nobasistransform Symmetry=None 5D 7F Pop=NBO7Read 

mol16-NBO

0 1
Si .000000 .000000 .000000
H .856135 .856135 .856135
H -.856135 -.856135 .856135
H -.856135 .856135 -.856135
H .856135 -.856135 -.856135

$nbo BOAO SAO SPNAO DMPNAO DMNAO DMMO DMAO AOMO AOPNAO AONAO DETAIL ARCHIVE FILE=mol16.gen* AOINFO NPA $end
