%mem=25GB
%chk=a.chk

#RHF/4-31G Pop=NBO7Read

NBO-a

0 1
C	0.000002 -0.000003 0.000002
Li	-0.946785 1.639879 -0.669478
H	0.029505 -0.051105 1.081096
H	1.029102 -0.051105 -0.332545
H	-0.470291 -0.916780 -0.332547

$nbo BOAO SAO SPNAO DMPNAO DMNAO DMMO DMAO AOMO AOPNAO AONAO AONO DETAIL ARCHIVE FILE=inpGenNbo AOINFO NPA $end
