%mem=25GB
%chk=mol111.chk

#RHF/6-31G* int=nobasistransform Symmetry=None 5D 7F Pop=NBO7Read 

mol111-NBO

0 1
O 1.218055 .361240 .000000
C .000000 .464133 .000000
H -.477241 1.465295 .000000
C -.948102 -.700138 .000000
H -.385946 -1.634236 .000000
H -1.596321 -.652475 .880946
H -1.596321 -.652475 -.880946

$nbo BOAO SAO SPNAO DMPNAO DMNAO DMMO DMAO AOMO AOPNAO AONAO DETAIL ARCHIVE FILE=mol111.gen* AOINFO NPA $end
