%mem=25GB
%chk=mol71.chk

#RHF/STO-3G int=nobasistransform Symmetry=None 5D 7F Pop=NBO7Read 

mol71-NBO

0 1
F .000000 1.110576 -.273729
O .000000 .000000 .615890
F .000000 -1.110576 -.273729

$nbo BOAO SAO SPNAO DMPNAO DMNAO DMMO DMAO AOMO AOPNAO AONAO DETAIL ARCHIVE FILE=mol71.gen* AOINFO NPA $end
