%mem=25GB
%chk=CH3NH2.chk

#OPT=VeryTight Int=UltraFine RHF/STO-3G Pop=NBO7Read

NBO-CH3NH2

0 1
 C     0.000000     0.000000     0.000000
 H     0.000000     0.000000     1.070000
 H     1.008807     0.000000    -0.356663
 H    -0.504401     0.873651    -0.356669
 N    -0.688251    -1.192085    -0.486667
 H    -0.688251    -1.192085    -1.516667
 H    -0.202704    -2.033076    -0.143333

$nbo BOAO SAO SPNAO DMPNAO DMNAO DMMO DMAO AOMO AOPNAO AONAO AONO DETAIL ARCHIVE FILE=CH3NH2 AOINFO NPA $end
