%mem=25GB
%chk=CH4.chk

#OPT=VeryTight Int=UltraFine RHF/STO-3G 5D 7F Pop=NBO7Read

NBO-SiH4

0 1
 Si    0.000000     0.000000     0.000000
 H     0.000000     0.000000     1.070000
 H     1.008807     0.000000    -0.356663
 H    -0.504401     0.873651    -0.356669
 H    -0.504401    -0.873651    -0.356669

$nbo BOAO SAO SPNAO DMPNAO DMNAO DMMO DMAO AOMO AOPNAO AONAO AONO DETAIL ARCHIVE FILE=SiH4 AOINFO NPA $end
