%mem=25GB
%chk=mol127.chk

#RHF/6-31G* int=nobasistransform Symmetry=None 5D 7F Pop=NBO7Read 

mol127-NBO

0 1
C .892629 -.642344 .000000
C 2.365587 -.245168 .000000
C .000000 .582921 .000000
H .663731 -1.252117 .879201
H .663731 -1.252117 -.879201
H 3.005476 -1.130924 .000000
Cl -1.732810 .139743 .000000
H 2.614882 .347704 -.884730
H 2.614882 .347704 .884730
H .172881 1.195836 .886460
H .172881 1.195836 -.886460

$nbo BOAO SAO SPNAO DMPNAO DMNAO DMMO DMAO AOMO AOPNAO AONAO DETAIL ARCHIVE FILE=mol127.gen* AOINFO NPA $end
