%mem=25GB
%chk=mol09.chk

#RHF/6-31G* int=nobasistransform Symmetry=None 5D 7F Pop=NBO7Read 

mol09-NBO

0 1
N .000000 .000000 .116489
H .000000 .939731 -.271808
H .813831 -.469865 -.271808
H -.813831 -.469865 -.271808

$nbo BOAO SAO SPNAO DMPNAO DMNAO DMMO DMAO AOMO AOPNAO AONAO DETAIL ARCHIVE FILE=mol09.gen* AOINFO NPA $end
