%mem=25GB
%chk=CH3BeH.chk

#OPT=VeryTight Int=UltraFine RHF/STO-3G Pop=NBO7Read

NBO-CH3BeH

0 1
 C     0.034460    -0.060079     0.024607
Be    -0.761833     1.323039    -0.534306
 H     0.058030    -0.101109     1.108575
 H     1.063997    -0.097534    -0.315798
 H    -0.448945    -0.969230    -0.317430
 H    -1.369766     2.378985    -0.961011

$nbo BOAO SAO SPNAO DMPNAO DMNAO DMMO DMAO AOMO AOPNAO AONAO AONO DETAIL ARCHIVE FILE=CH3BeH AOINFO NPA $end
