%mem=25GB
%chk=mol23.chk

#RHF/STO-3G int=nobasistransform Symmetry=None 5D 7F Pop=NBO7Read 

mol23-NBO

0 1
C .000000 .000000 .608080
C .000000 .000000 -.608080
H .000000 .000000 -1.673990
H .000000 .000000 1.673990

$nbo BOAO SAO SPNAO DMPNAO DMNAO DMMO DMAO AOMO AOPNAO AONAO DETAIL ARCHIVE FILE=mol23.gen* AOINFO NPA $end
