%mem=25GB
%chk=mol25.chk

#RHF/STO-3G int=nobasistransform Symmetry=None 5D 7F Pop=NBO7Read 

mol25-NBO

0 1
C .000000 .000000 .762209
C .000000 .000000 -.762209
H .000000 1.018957 1.157229
H -.882443 -.509479 1.157229
H .882443 -.509479 1.157229
H .000000 -1.018957 -1.157229
H -.882443 .509479 -1.157229
H .882443 .509479 -1.157229

$nbo BOAO SAO SPNAO DMPNAO DMNAO DMMO DMAO AOMO AOPNAO AONAO DETAIL ARCHIVE FILE=mol25.gen* AOINFO NPA $end
