%mem=25GB
%chk=mol133.chk

#RHF/STO-3G int=nobasistransform Symmetry=None 5D 7F Pop=NBO7Read 

mol133-NBO

0 1
H .000000 .000000 2.129296
N .000000 .000000 1.118684
C .000000 1.124516 .333565
C .000000 -1.124516 .333565
C .000000 .708407 -.983807
C .000000 -.708407 -.983807
H .000000 2.112872 .770496
H .000000 -2.112872 .770496
H .000000 1.357252 -1.849085
H .000000 -1.357252 -1.849085

$nbo BOAO SAO SPNAO DMPNAO DMNAO DMMO DMAO AOMO AOPNAO AONAO DETAIL ARCHIVE FILE=mol133.gen* AOINFO NPA $end
