%mem=25GB
%chk=mol18.chk

#RHF/STO-3G int=nobasistransform Symmetry=None 5D 7F Pop=NBO7Read 

mol18-NBO

0 1
P .000000 .000000 .124619
H .000000 1.200647 -.623095
H 1.039791 -.600323 -.623095
H -1.039791 -.600323 -.623095

$nbo BOAO SAO SPNAO DMPNAO DMNAO DMMO DMAO AOMO AOPNAO AONAO DETAIL ARCHIVE FILE=mol18.gen* AOINFO NPA $end
