%mem=25GB
%chk=a.chk

#RHF/6-31G* Pop=NBO7Read

NBO-a

0 1
C	-0.008857 0.015341 -0.006262
H	0.001985 -0.003442 1.090060
H	1.028381 -0.003442 -0.361478
H	-0.511210 -0.892323 -0.361480
F	-0.661148 1.145146 -0.467503

$nbo BOAO SAO SPNAO DMPNAO DMNAO DMMO DMAO AOMO AOPNAO AONAO AONO DETAIL ARCHIVE FILE=inpGenNbo AOINFO NPA $end
