%mem=25GB
%chk=mol117.chk

#RHF/STO-3G int=nobasistransform Symmetry=None 5D 7F Pop=NBO7Read 

mol117-NBO

0 1
C 1.514343 .679412 .000000
C .000000 .826412 .000000
S -.756068 -.831284 .000000
H -2.035346 -.427738 .000000
H -.324970 1.376482 .885793
H -.324970 1.376482 -.885793
H 1.986503 1.665082 .000000
H 1.854904 .137645 .885494
H 1.854904 .137645 -.885494

$nbo BOAO SAO SPNAO DMPNAO DMNAO DMMO DMAO AOMO AOPNAO AONAO DETAIL ARCHIVE FILE=mol117.gen* AOINFO NPA $end
