%mem=25GB
%chk=mol73.chk

#RHF/6-31G* int=nobasistransform Symmetry=None 5D 7F Pop=NBO7Read 

mol73-NBO

0 1
C .000000 .000000 .663230
C .000000 .000000 -.663230
F .000000 1.112665 1.385652
F .000000 -1.112665 1.385652
F .000000 1.112665 -1.385652
F .000000 -1.112665 -1.385652

$nbo BOAO SAO SPNAO DMPNAO DMNAO DMMO DMAO AOMO AOPNAO AONAO DETAIL ARCHIVE FILE=mol73.gen* AOINFO NPA $end
