%mem=25GB
%chk=mol131.chk

#RHF/6-31G* int=nobasistransform Symmetry=None 5D 7F Pop=NBO7Read 

mol131-NBO

0 1
O .000000 .000000 1.163339
C .000000 1.094700 .348039
C .000000 -1.094700 .348039
C .000000 .713200 -.962161
C .000000 -.713200 -.962161
H .000000 2.049359 .851113
H .000000 -2.049359 .851113
H .000000 1.370828 -1.819738
H .000000 -1.370828 -1.819738

$nbo BOAO SAO SPNAO DMPNAO DMNAO DMMO DMAO AOMO AOPNAO AONAO DETAIL ARCHIVE FILE=mol131.gen* AOINFO NPA $end
