%mem=25GB
%chk=mol53.chk

#RHF/6-31G* int=nobasistransform Symmetry=None 5D 7F Pop=NBO7Read 

mol53-NBO

0 1
O .036702 1.113517 .000000
H -.917548 1.328879 .000000
Cl .036702 -.602177 .000000

$nbo BOAO SAO SPNAO DMPNAO DMNAO DMMO DMAO AOMO AOPNAO AONAO DETAIL ARCHIVE FILE=mol53.gen* AOINFO NPA $end
