%mem=25GB
%chk=mol121.chk

#RHF/STO-3G int=nobasistransform Symmetry=None 5D 7F Pop=NBO7Read 

mol121-NBO

0 1
C .000000 .756016 .000000
C 1.303223 1.028507 .000000
Cl -.631555 -.854980 .000000
H -.771098 1.516963 .000000
H 2.056095 .249427 .000000
H 1.632096 2.061125 .000000

$nbo BOAO SAO SPNAO DMPNAO DMNAO DMMO DMAO AOMO AOPNAO AONAO DETAIL ARCHIVE FILE=mol121.gen* AOINFO NPA $end
