%mem=25GB
%chk=LiBH2.chk

#OPT=VeryTight Int=UltraFine RHF/STO-3G Pop=NBO7Read

NBO-LiBH2

0 1
 B     0.000000     0.000000     0.000000
Li    -1.825307     0.000000    -1.217329
 H     0.002031     0.000000     1.163998
 H     1.075396     0.000000    -0.445443

$nbo BOAO SAO SPNAO DMPNAO DMNAO DMMO DMAO AOMO AOPNAO AONAO AONO DETAIL ARCHIVE FILE=LiBH2 AOINFO NPA $end
