%mem=25GB
%chk=mol114.chk

#RHF/STO-3G int=nobasistransform Symmetry=None 5D 7F Pop=NBO7Read 

mol114-NBO

0 1
C .000000 1.165725 -.199950
O .000000 .000000 .600110
C .000000 -1.165725 -.199950
H .000000 2.017769 .480203
H .891784 1.214320 -.840474
H -.891784 1.214320 -.840474
H .000000 -2.017769 .480203
H -.891784 -1.214320 -.840474
H .891784 -1.214320 -.840474

$nbo BOAO SAO SPNAO DMPNAO DMNAO DMMO DMAO AOMO AOPNAO AONAO DETAIL ARCHIVE FILE=mol114.gen* AOINFO NPA $end
