%mem=25GB
%chk=mol81.chk

#RHF/STO-3G int=nobasistransform Symmetry=None 5D 7F Pop=NBO7Read 

mol81-NBO

0 1
C .000000 .000000 .587716
C .000000 1.266857 -.260186
C .000000 -1.266857 -.260186
H -.876898 .000000 1.244713
H .876898 .000000 1.244713
H .000000 2.166150 .362066
H .000000 -2.166150 .362066
H .883619 1.304234 -.904405
H -.883619 1.304234 -.904405
H -.883619 -1.304234 -.904405
H .883619 -1.304234 -.904405

$nbo BOAO SAO SPNAO DMPNAO DMNAO DMMO DMAO AOMO AOPNAO AONAO DETAIL ARCHIVE FILE=mol81.gen* AOINFO NPA $end
