%mem=25GB
%chk=mol93.chk

#RHF/6-31G* int=nobasistransform Symmetry=None 5D 7F Pop=NBO7Read 

mol93-NBO

0 1
C .000000 .000000 .502903
F .000000 1.109716 -.290601
F .000000 -1.109716 -.290601
H -.908369 .000000 1.106699
H .908369 .000000 1.106699

$nbo BOAO SAO SPNAO DMPNAO DMNAO DMMO DMAO AOMO AOPNAO AONAO DETAIL ARCHIVE FILE=mol93.gen* AOINFO NPA $end
