%mem=25GB
%chk=mol104.chk

#RHF/6-31G* int=nobasistransform Symmetry=None 5D 7F Pop=NBO7Read 

mol104-NBO

0 1
O .424546 1.327024 .008034
C .077158 .149789 -.004249
N .985518 -.878537 -.048910
C -1.371475 -.288665 -.000144
H .707952 -1.824249 .169942
H -1.997229 .584922 -.175477
H -1.560842 -1.039270 -.771686
H -1.632113 -.723007 .969814
H 1.953133 -.631574 .111866

$nbo BOAO SAO SPNAO DMPNAO DMNAO DMMO DMAO AOMO AOPNAO AONAO DETAIL ARCHIVE FILE=mol104.gen* AOINFO NPA $end
