%mem=25GB
%chk=mol108.chk

#RHF/STO-3G int=nobasistransform Symmetry=None 5D 7F Pop=NBO7Read 

mol108-NBO

0 1
C 1.210014 -.353598 .000000
C .000000 .575951 .000000
N -1.305351 -.087478 .000000
H 2.149310 .208498 .000000
H 1.201796 -.997760 .884909
H 1.201796 -.997760 -.884909
H .034561 1.230963 -.876478
H .034561 1.230963 .876478
H -1.372326 -.698340 .813132
H -1.372326 -.698340 -.813132

$nbo BOAO SAO SPNAO DMPNAO DMNAO DMMO DMAO AOMO AOPNAO AONAO DETAIL ARCHIVE FILE=mol108.gen* AOINFO NPA $end
