%mem=25GB
%chk=mol85.chk

#RHF/6-31G* int=nobasistransform Symmetry=None 5D 7F Pop=NBO7Read 

mol85-NBO

0 1
C .000000 1.131343 .310424
C .000000 -1.131343 .310424
C .747952 .000000 -.311812
C -.747952 .000000 -.311812
H .000000 1.237033 1.397617
H .000000 2.077375 -.227668
H .000000 -1.237033 1.397617
H .000000 -2.077375 -.227668
H 1.414410 .000000 -1.161626
H -1.414410 .000000 -1.161626

$nbo BOAO SAO SPNAO DMPNAO DMNAO DMMO DMAO AOMO AOPNAO AONAO DETAIL ARCHIVE FILE=mol85.gen* AOINFO NPA $end
