%mem=25GB
%chk=mol92.chk

#RHF/STO-3G int=nobasistransform Symmetry=None 5D 7F Pop=NBO7Read 

mol92-NBO

0 1
C .000000 1.395248 .000000
C 1.208320 .697624 .000000
C 1.208320 -.697624 .000000
C .000000 -1.395248 .000000
C -1.208320 -.697624 .000000
C -1.208320 .697624 .000000
H .000000 2.482360 .000000
H 2.149787 1.241180 .000000
H 2.149787 -1.241180 .000000
H .000000 -2.482360 .000000
H -2.149787 -1.241180 .000000
H -2.149787 1.241180 .000000

$nbo BOAO SAO SPNAO DMPNAO DMNAO DMMO DMAO AOMO AOPNAO AONAO DETAIL ARCHIVE FILE=mol92.gen* AOINFO NPA $end
