%mem=25GB
%chk=mol65.chk

#RHF/6-31G* int=nobasistransform Symmetry=None 5D 7F Pop=NBO7Read 

mol65-NBO

0 1
Si .000000 .000000 .000000
Cl 1.169349 1.169349 1.169349
Cl -1.169349 -1.169349 1.169349
Cl 1.169349 -1.169349 -1.169349
Cl -1.169349 1.169349 -1.169349

$nbo BOAO SAO SPNAO DMPNAO DMNAO DMMO DMAO AOMO AOPNAO AONAO DETAIL ARCHIVE FILE=mol65.gen* AOINFO NPA $end
