%mem=25GB
%chk=mol130.chk

#RHF/STO-3G int=nobasistransform Symmetry=None 5D 7F Pop=NBO7Read 

mol130-NBO

0 1
N .000000 .000000 .395846
C .000000 1.378021 -.065175
C 1.193401 -.689011 -.065175
C -1.193401 -.689011 -.065175
H .000000 1.461142 -1.167899
H .886156 1.891052 .317655
H -.886156 1.891052 .317655
H 1.265386 -.730571 -1.167899
H 1.194621 -1.712960 .317655
H 2.080777 -.178092 .317655
H -1.265386 -.730571 -1.167899
H -2.080777 -.178092 .317655
H -1.194621 -1.712960 .317655

$nbo BOAO SAO SPNAO DMPNAO DMNAO DMMO DMAO AOMO AOPNAO AONAO DETAIL ARCHIVE FILE=mol130.gen* AOINFO NPA $end
