%mem=25GB
%chk=mol82.chk

#RHF/STO-3G int=nobasistransform Symmetry=None 5D 7F Pop=NBO7Read 

mol82-NBO

0 1
C .605711 1.746550 .000000
C .605711 .404083 .000000
C -.605711 -.404083 .000000
C -.605711 -1.746550 .000000
H 1.527617 2.317443 .000000
H -.321132 2.313116 .000000
H 1.553503 -.133640 .000000
H -1.553503 .133640 .000000
H .321132 -2.313116 .000000
H -1.527617 -2.317443 .000000

$nbo BOAO SAO SPNAO DMPNAO DMNAO DMMO DMAO AOMO AOPNAO AONAO DETAIL ARCHIVE FILE=mol82.gen* AOINFO NPA $end
