%mem=25GB
%chk=mol61.chk

#RHF/6-31G* int=nobasistransform Symmetry=None 5D 7F Pop=NBO7Read 

mol61-NBO

0 1
O .000000 .000000 -1.699243
C .000000 .000000 -.520492
S .000000 .000000 1.044806

$nbo BOAO SAO SPNAO DMPNAO DMNAO DMMO DMAO AOMO AOPNAO AONAO DETAIL ARCHIVE FILE=mol61.gen* AOINFO NPA $end
