%mem=25GB
%chk=mol105.chk

#RHF/6-31G* int=nobasistransform Symmetry=None 5D 7F Pop=NBO7Read 

mol105-NBO

0 1
C -.038450 -.397326 .739421
N -.038450 .875189 .000000
C -.038450 -.397326 -.739421
H .903052 1.268239 .000000
H -.955661 -.604926 1.280047
H -.955661 -.604926 -1.280047
H .869409 -.708399 1.249033
H .869409 -.708399 -1.249033

$nbo BOAO SAO SPNAO DMPNAO DMNAO DMMO DMAO AOMO AOPNAO AONAO DETAIL ARCHIVE FILE=mol105.gen* AOINFO NPA $end
