%mem=25GB
%chk=CH3F.chk

#OPT=VeryTight Int=UltraFine RHF/STO-3G Pop=NBO7Read

NBO-CH3F

0 1
C     0.000000     0.000000     0.000000
H     0.000000     0.000000     1.070000
H     1.008807     0.000000    -0.356663
H    -0.504403    -0.873651    -0.356667
F    -0.655252     1.134930    -0.463333

$nbo BOAO SAO SPNAO DMPNAO DMNAO DMMO DMAO AOMO AOPNAO AONAO AONO DETAIL ARCHIVE FILE=CH3F AOINFO NPA $end
