%mem=25GB
%chk=mol74.chk

#RHF/STO-3G int=nobasistransform Symmetry=None 5D 7F Pop=NBO7Read 

mol74-NBO

0 1
C .000000 .000000 .675402
C .000000 .000000 -.675402
Cl .000000 1.448939 1.589701
Cl .000000 -1.448939 1.589701
Cl .000000 -1.448939 -1.589701
Cl .000000 1.448939 -1.589701

$nbo BOAO SAO SPNAO DMPNAO DMNAO DMMO DMAO AOMO AOPNAO AONAO DETAIL ARCHIVE FILE=mol74.gen* AOINFO NPA $end
