%mem=25GB
%chk=mol57.chk

#RHF/6-31G* int=nobasistransform Symmetry=None 5D 7F Pop=NBO7Read 

mol57-NBO

0 1
Al .000000 .000000 .000000
F .000000 1.644720 .000000
F 1.424369 -.822360 .000000
F -1.424369 -.822360 .000000

$nbo BOAO SAO SPNAO DMPNAO DMNAO DMMO DMAO AOMO AOPNAO AONAO DETAIL ARCHIVE FILE=mol57.gen* AOINFO NPA $end
