%mem=25GB
%chk=mol98.chk

#RHF/6-31G* int=nobasistransform Symmetry=None 5D 7F Pop=NBO7Read 

mol98-NBO

0 1
C .000000 .000000 -1.186930
C .000000 .000000 .273874
N .000000 .000000 1.452206
H .000000 1.024986 -1.562370
H .887664 -.512493 -1.562370
H -.887664 -.512493 -1.562370

$nbo BOAO SAO SPNAO DMPNAO DMNAO DMMO DMAO AOMO AOPNAO AONAO DETAIL ARCHIVE FILE=mol98.gen* AOINFO NPA $end
