%mem=25GB
%chk=mol06.chk

#RHF/6-31G* int=nobasistransform Symmetry=None 5D 7F Pop=NBO7Read 

mol06-NBO

0 1
C .000000 .000000 .000000
H .629118 .629118 .629118
H -.629118 -.629118 .629118
H .629118 -.629118 -.629118
H -.629118 .629118 -.629118

$nbo BOAO SAO SPNAO DMPNAO DMNAO DMMO DMAO AOMO AOPNAO AONAO DETAIL ARCHIVE FILE=mol06.gen* AOINFO NPA $end
