%mem=25GB
%chk=a.chk

#RHF/4-31G Pop=NBO7Read

NBO-a

0 1
C	0.004002 -0.007547 -0.006036
H	0.004898 0.006802 1.082630
H	1.041020 0.029944 -0.349717
H	-0.504309 0.888779 -0.357633
N	-0.738855 -1.204882 -0.476612
H	-0.676480 -1.220095 -1.507986
H	-0.205075 -2.036596 -0.174644

$nbo BOAO SAO SPNAO DMPNAO DMNAO DMMO DMAO AOMO AOPNAO AONAO AONO DETAIL ARCHIVE FILE=inpGenNbo AOINFO NPA $end
