%mem=25GB
%chk=mol124.chk

#RHF/STO-3G int=nobasistransform Symmetry=None 5D 7F Pop=NBO7Read 

mol124-NBO

0 1
C .000000 .154560 .000000
O .166384 1.360084 .000000
O -1.236449 -.415036 .000000
H -1.867646 .333582 .000000
C 1.073776 -.892748 .000000
H 2.048189 -.408135 .000000
H .968661 -1.528353 .881747
H .968661 -1.528353 -.881747

$nbo BOAO SAO SPNAO DMPNAO DMNAO DMMO DMAO AOMO AOPNAO AONAO DETAIL ARCHIVE FILE=mol124.gen* AOINFO NPA $end
