%mem=25GB
%chk=mol59.chk

#RHF/6-31G* int=nobasistransform Symmetry=None 5D 7F Pop=NBO7Read 

mol59-NBO

0 1
C .000000 .000000 .000000
F .767436 .767436 .767436
F -.767436 -.767436 .767436
F -.767436 .767436 -.767436
F .767436 -.767436 -.767436

$nbo BOAO SAO SPNAO DMPNAO DMNAO DMMO DMAO AOMO AOPNAO AONAO DETAIL ARCHIVE FILE=mol59.gen* AOINFO NPA $end
