%mem=25GB
%chk=mol89.chk

#RHF/6-31G* int=nobasistransform Symmetry=None 5D 7F Pop=NBO7Read 

mol89-NBO

0 1
C .702581 1.820873 .000000
C .702581 .296325 .000000
C -.702581 -.296325 .000000
C -.702581 -1.820873 .000000
H 1.719809 2.222340 .000000
H -1.719809 -2.222340 .000000
H .188154 2.210362 .883614
H .188154 2.210362 -.883614
H -.188154 -2.210362 .883614
H -.188154 -2.210362 -.883614
H 1.247707 -.072660 -.877569
H 1.247707 -.072660 .877569
H -1.247707 .072660 -.877569
H -1.247707 .072660 .877569

$nbo BOAO SAO SPNAO DMPNAO DMNAO DMMO DMAO AOMO AOPNAO AONAO DETAIL ARCHIVE FILE=mol89.gen* AOINFO NPA $end
