%mem=25GB
%chk=mol128.chk

#RHF/STO-3G int=nobasistransform Symmetry=None 5D 7F Pop=NBO7Read 

mol128-NBO

0 1
O .027191 1.363691 -.167516
C -.000926 .036459 .370128
H .859465 1.775647 .121307
H .007371 .082145 1.470506
C -1.313275 -.563514 -.088979
C 1.200721 -.764480 -.104920
H -1.334005 -.607253 -1.181009
H 1.202843 -.807817 -1.197189
H -2.147812 .054993 .247676
H 2.136462 -.299324 .223164
H -1.438709 -1.574275 .308340
H 1.177736 -1.784436 .289967

$nbo BOAO SAO SPNAO DMPNAO DMNAO DMMO DMAO AOMO AOPNAO AONAO DETAIL ARCHIVE FILE=mol128.gen* AOINFO NPA $end
