%mem=25GB
%chk=mol120.chk

#RHF/STO-3G int=nobasistransform Symmetry=None 5D 7F Pop=NBO7Read 

mol120-NBO

0 1
C .000000 .807636 .000000
C 1.505827 .647832 .000000
Cl -.823553 -.779970 .000000
H -.344979 1.341649 .885248
H -.344979 1.341649 -.885248
H 1.976903 1.634877 .000000
H 1.839246 .104250 .885398
H 1.839246 .104250 -.885398

$nbo BOAO SAO SPNAO DMPNAO DMNAO DMMO DMAO AOMO AOPNAO AONAO DETAIL ARCHIVE FILE=mol120.gen* AOINFO NPA $end
