%mem=25GB
%chk=mol75.chk

#RHF/6-31G* int=nobasistransform Symmetry=None 5D 7F Pop=NBO7Read 

mol75-NBO

0 1
C .000000 .000000 -.326350
C .000000 .000000 1.150830
F .000000 1.257579 -.787225
F 1.089096 -.628790 -.787225
F -1.089096 -.628790 -.787225
N .000000 .000000 2.329741

$nbo BOAO SAO SPNAO DMPNAO DMNAO DMMO DMAO AOMO AOPNAO AONAO DETAIL ARCHIVE FILE=mol75.gen* AOINFO NPA $end
