%mem=25GB
%chk=mol58.chk

#RHF/6-31G* int=nobasistransform Symmetry=None 5D 7F Pop=NBO7Read 

mol58-NBO

0 1
Al .000000 .000000 .000000
Cl .000000 2.069041 .000000
Cl 1.791842 -1.034520 .000000
Cl -1.791842 -1.034520 .000000

$nbo BOAO SAO SPNAO DMPNAO DMNAO DMMO DMAO AOMO AOPNAO AONAO DETAIL ARCHIVE FILE=mol58.gen* AOINFO NPA $end
