%mem=25GB
%chk=mol116.chk

#RHF/STO-3G int=nobasistransform Symmetry=None 5D 7F Pop=NBO7Read 

mol116-NBO

0 1
S .000002 .231838 -.438643
O .000020 1.500742 .379819
C 1.339528 -.809022 .180717
C -1.339548 -.808992 .180718
H 1.255835 -.896385 1.266825
H -2.279404 -.313924 -.068674
H 1.304407 -1.793327 -.292589
H 2.279395 -.313974 -.068674
H -1.304447 -1.793298 -.292587
H -1.255857 -.896355 1.266826

$nbo BOAO SAO SPNAO DMPNAO DMNAO DMMO DMAO AOMO AOPNAO AONAO DETAIL ARCHIVE FILE=mol116.gen* AOINFO NPA $end
