%mem=25GB
%chk=LiCH3.chk

#RHF/STO-3G NMR Pop=NBO7Read

NBO-LiCH3

0 1
 C   0.398109   -0.000000   -0.000000
Li  -1.610325   -0.000000   -0.000000
 H   0.814106   -0.542451   -0.839607
 H   0.814106   -0.455895    0.889580
 H   0.814106    0.998346   -0.049973

$nbo BOAO SAO SPNAO DMPNAO DMNAO DMMO DMAO AOMO AOPNAO AONAO AONO DETAIL ARCHIVE FILE=LiCH3 AOINFO NPA NCS=0.001,U,I,CSA,MO $end
