%mem=25GB
%chk=mol100.chk

#RHF/STO-3G int=nobasistransform Symmetry=None 5D 7F Pop=NBO7Read 

mol100-NBO

0 1
C -1.316208 .309247 .000000
O .000000 .896852 .000000
H -1.985538 1.166013 .000000
H -1.464336 -.304637 .890672
H -1.464336 -.304637 -.890672
N 1.045334 -.022815 .000000
O .686764 -1.178416 .000000

$nbo BOAO SAO SPNAO DMPNAO DMNAO DMMO DMAO AOMO AOPNAO AONAO DETAIL ARCHIVE FILE=mol100.gen* AOINFO NPA $end
