%mem=25GB
%chk=mol101.chk

#RHF/STO-3G int=nobasistransform Symmetry=None 5D 7F Pop=NBO7Read 

mol101-NBO

0 1
C .000000 .000000 -1.244466
Si .000000 .000000 .635703
H .000000 -1.019762 -1.636363
H -.883140 .509881 -1.636363
H .883140 .509881 -1.636363
H .000000 1.391234 1.158682
H -1.204844 -.695617 1.158682
H 1.204844 -.695617 1.158682

$nbo BOAO SAO SPNAO DMPNAO DMNAO DMMO DMAO AOMO AOPNAO AONAO DETAIL ARCHIVE FILE=mol101.gen* AOINFO NPA $end
