%mem=25GB
%chk=mol99.chk

#RHF/6-31G* int=nobasistransform Symmetry=None 5D 7F Pop=NBO7Read 

mol99-NBO

0 1
C -.114282 -1.314565 .000000
N .000000 .166480 .000000
H .899565 -1.715256 .000000
H -.640921 -1.607212 .904956
H -.640921 -1.607212 -.904956
O .066748 .728232 -1.103775
O .066748 .728232 1.103775

$nbo BOAO SAO SPNAO DMPNAO DMNAO DMMO DMAO AOMO AOPNAO AONAO DETAIL ARCHIVE FILE=mol99.gen* AOINFO NPA $end
