%mem=25GB
%chk=mol72.chk

#RHF/STO-3G int=nobasistransform Symmetry=None 5D 7F Pop=NBO7Read 

mol72-NBO

0 1
Cl .000000 .000000 .376796
F .000000 .000000 -1.258346
F .000000 1.714544 .273310
F .000000 -1.714544 .273310

$nbo BOAO SAO SPNAO DMPNAO DMNAO DMMO DMAO AOMO AOPNAO AONAO DETAIL ARCHIVE FILE=mol72.gen* AOINFO NPA $end
