%mem=25GB
%chk=LiOH.chk

#Opt=VTight RHF/STO-3G Pop=NBO7Read

NBO-LiOH

0 1
 O     0.000000     0.000000     0.000000
Li     0.000000     0.000000     1.432000
 H     0.000000     0.000000    -0.971000

$nbo BOAO SAO SPNAO DMPNAO DMNAO DMMO DMAO AOMO AOPNAO AONAO AONO DETAIL ARCHIVE FILE=LiOH AOINFO NPA $end
