%mem=25GB
%chk=mol64.chk

#RHF/6-31G* int=nobasistransform Symmetry=None 5D 7F Pop=NBO7Read 

mol64-NBO

0 1
Si .000000 .000000 .000000
F .912806 .912806 .912806
F -.912806 -.912806 .912806
F -.912806 .912806 -.912806
F .912806 -.912806 -.912806

$nbo BOAO SAO SPNAO DMPNAO DMNAO DMMO DMAO AOMO AOPNAO AONAO DETAIL ARCHIVE FILE=mol64.gen* AOINFO NPA $end
