%mem=25GB
%chk=mol80.chk

#RHF/STO-3G int=nobasistransform Symmetry=None 5D 7F Pop=NBO7Read 

mol80-NBO

0 1
C .000000 .866998 .000000
C .750842 -.433499 .000000
C -.750842 -.433499 .000000
H .000000 1.455762 .910526
H .000000 1.455762 -.910526
H 1.260727 -.727881 -.910526
H 1.260727 -.727881 .910526
H -1.260727 -.727881 .910526
H -1.260727 -.727881 -.910526

$nbo BOAO SAO SPNAO DMPNAO DMNAO DMMO DMAO AOMO AOPNAO AONAO DETAIL ARCHIVE FILE=mol80.gen* AOINFO NPA $end
