%mem=25GB
%chk=mol134.chk

#RHF/6-31G* int=nobasistransform Symmetry=None 5D 7F Pop=NBO7Read 

mol134-NBO

0 1
N .000000 .000000 1.424672
C .000000 .000000 -1.386178
C .000000 1.144277 .720306
C .000000 -1.144277 .720306
C .000000 -1.196404 -.672917
C .000000 1.196404 -.672917
H .000000 .000000 -2.473052
H .000000 2.060723 1.307477
H .000000 -2.060723 1.307477
H .000000 -2.155293 -1.183103
H .000000 2.155293 -1.183103

$nbo BOAO SAO SPNAO DMPNAO DMNAO DMMO DMAO AOMO AOPNAO AONAO DETAIL ARCHIVE FILE=mol134.gen* AOINFO NPA $end
