%mem=25GB
%chk=mol102.chk

#RHF/6-31G* int=nobasistransform Symmetry=None 5D 7F Pop=NBO7Read 

mol102-NBO

0 1
O -1.040945 -.436432 .000000
C .000000 .423949 .000000
O 1.169372 .103741 .000000
H -.649570 -1.335134 .000000
H -.377847 1.452967 .000000

$nbo BOAO SAO SPNAO DMPNAO DMNAO DMMO DMAO AOMO AOPNAO AONAO DETAIL ARCHIVE FILE=mol102.gen* AOINFO NPA $end
