%mem=25GB
%chk=a.chk

#RHF/4-31G Pop=NBO7Read

NBO-a

0 1
C	0.041752 0.074124 0.029523
H	0.045821 0.043096 1.112745
H	1.064383 0.043097 -0.327710
H	-0.367936 1.040584 -0.260172
B	-0.868200 -1.031546 -0.613915
H	-1.800388 -1.435979 -0.049580
H	-0.646862 -1.435979 -1.680900

$nbo BOAO SAO SPNAO DMPNAO DMNAO DMMO DMAO AOMO AOPNAO AONAO AONO DETAIL ARCHIVE FILE=inpGenNbo AOINFO NPA $end
