%mem=25GB
%chk=mol76.chk

#RHF/STO-3G int=nobasistransform Symmetry=None 5D 7F Pop=NBO7Read 

mol76-NBO

0 1
C .000000 .000000 .214947
C .000000 .000000 1.433130
C .000000 .000000 -1.246476
H .000000 .000000 2.498887
H .000000 1.021145 -1.636167
H .884337 -.510572 -1.636167
H -.884337 -.510572 -1.636167

$nbo BOAO SAO SPNAO DMPNAO DMNAO DMMO DMAO AOMO AOPNAO AONAO DETAIL ARCHIVE FILE=mol76.gen* AOINFO NPA $end
