%mem=25GB
%chk=mol83.chk

#RHF/6-31G* int=nobasistransform Symmetry=None 5D 7F Pop=NBO7Read 

mol83-NBO

0 1
C .000000 .000000 2.071955
C .000000 .000000 .609970
C .000000 .000000 -.609970
C .000000 .000000 -2.071955
H .000000 1.020696 2.464562
H -.883949 -.510348 2.464562
H .883949 -.510348 2.464562
H .000000 1.020696 -2.464562
H .883949 -.510348 -2.464562
H -.883949 -.510348 -2.464562

$nbo BOAO SAO SPNAO DMPNAO DMNAO DMMO DMAO AOMO AOPNAO AONAO DETAIL ARCHIVE FILE=mol83.gen* AOINFO NPA $end
