%mem=25GB
%chk=mol129.chk

#RHF/6-31G* int=nobasistransform Symmetry=None 5D 7F Pop=NBO7Read 

mol129-NBO

0 1
O .006429 -.712741 .000000
C .000000 .705845 .000000
C 1.324518 -1.226029 .000000
C -1.442169 1.160325 .000000
H .530962 1.086484 .886881
H .530962 1.086484 -.886881
H 1.241648 -2.313325 .000000
H 1.881329 -.905925 -.891710
H 1.881329 -.905925 .891710
H -1.954863 .780605 -.885855
H -1.954863 .780605 .885855
H -1.502025 2.252083 .000000

$nbo BOAO SAO SPNAO DMPNAO DMNAO DMMO DMAO AOMO AOPNAO AONAO DETAIL ARCHIVE FILE=mol129.gen* AOINFO NPA $end
