%mem=25GB
%chk=mol30.chk

#RHF/STO-3G int=nobasistransform Symmetry=None 5D 7F Pop=NBO7Read 

mol30-NBO

0 1
O .000000 .000000 .683501
C .000000 .000000 -.536614
H .000000 .934390 -1.124164
H .000000 -.934390 -1.124164

$nbo BOAO SAO SPNAO DMPNAO DMNAO DMMO DMAO AOMO AOPNAO AONAO DETAIL ARCHIVE FILE=mol30.gen* AOINFO NPA $end
