%mem=25GB
%chk=mol125.chk

#RHF/STO-3G int=nobasistransform Symmetry=None 5D 7F Pop=NBO7Read 

mol125-NBO

0 1
C .000000 .186396 .000000
O .126651 1.377199 .000000
F -1.243950 -.382745 .000000
C 1.049454 -.876224 .000000
H 2.035883 -.417099 .000000
H .924869 -1.508407 .881549
H .924869 -1.508407 -.881549

$nbo BOAO SAO SPNAO DMPNAO DMNAO DMMO DMAO AOMO AOPNAO AONAO DETAIL ARCHIVE FILE=mol125.gen* AOINFO NPA $end
