%mem=25GB
%chk=a.chk

#RHF/6-31G* Pop=NBO7Read

NBO-a

0 1
C	0.000001 0.000000 -0.000000
H	-0.000002 -0.000000 1.083010
H	1.021073 0.000000 -0.361001
H	-0.510534 0.884274 -0.361005
H	-0.510534 -0.884274 -0.361005

$nbo BOAO SAO SPNAO DMPNAO DMNAO DMMO DMAO AOMO AOPNAO AONAO AONO DETAIL ARCHIVE FILE=inpGenNbo AOINFO NPA $end
