%mem=25GB
%chk=mol84.chk

#RHF/6-31G* int=nobasistransform Symmetry=None 5D 7F Pop=NBO7Read 

mol84-NBO

0 1
C .000000 .000000 .315026
C .000000 -.767920 -.932032
C .000000 .767920 -.932032
C .000000 .000000 1.640027
H -.912794 -1.271789 -1.239303
H .912794 -1.271789 -1.239303
H .912794 1.271789 -1.239303
H -.912794 1.271789 -1.239303
H .000000 -.926908 2.205640
H .000000 .926908 2.205640

$nbo BOAO SAO SPNAO DMPNAO DMNAO DMMO DMAO AOMO AOPNAO AONAO DETAIL ARCHIVE FILE=mol84.gen* AOINFO NPA $end
