%mem=25GB
%chk=mol87.chk

#RHF/6-31G* int=nobasistransform Symmetry=None 5D 7F Pop=NBO7Read 

mol87-NBO

0 1
C .000000 1.071142 .147626
C .000000 -1.071142 .147626
C -1.071142 .000000 -.147626
C 1.071142 .000000 -.147626
H .000000 1.986858 -.450077
H .000000 1.342921 1.207520
H .000000 -1.986858 -.450077
H .000000 -1.342921 1.207520
H -1.986858 .000000 .450077
H -1.342921 .000000 -1.207520
H 1.986858 .000000 .450077
H 1.342921 .000000 -1.207520

$nbo BOAO SAO SPNAO DMPNAO DMNAO DMMO DMAO AOMO AOPNAO AONAO DETAIL ARCHIVE FILE=mol87.gen* AOINFO NPA $end
