%mem=25GB
%chk=mol68.chk

#RHF/STO-3G int=nobasistransform Symmetry=None 5D 7F Pop=NBO7Read 

mol68-NBO

0 1
N .000000 .000000 .489672
F .000000 1.238218 -.126952
F 1.072328 -.619109 -.126952
F -1.072328 -.619109 -.126952

$nbo BOAO SAO SPNAO DMPNAO DMNAO DMMO DMAO AOMO AOPNAO AONAO DETAIL ARCHIVE FILE=mol68.gen* AOINFO NPA $end
