%mem=25GB
%chk=mol96.chk

#RHF/STO-3G int=nobasistransform Symmetry=None 5D 7F Pop=NBO7Read 

mol96-NBO

0 1
C .000000 .000000 .451679
H .000000 .000000 1.537586
Cl .000000 1.681723 -.083287
Cl 1.456415 -.840862 -.083287
Cl -1.456415 -.840862 -.083287

$nbo BOAO SAO SPNAO DMPNAO DMNAO DMMO DMAO AOMO AOPNAO AONAO DETAIL ARCHIVE FILE=mol96.gen* AOINFO NPA $end
