%mem=25GB
%chk=mol97.chk

#RHF/STO-3G int=nobasistransform Symmetry=None 5D 7F Pop=NBO7Read 

mol97-NBO

0 1
C .051736 .704422 .000000
N .051736 -.759616 .000000
H -.941735 1.176192 .000000
H -.458181 -1.099433 .812370
H -.458181 -1.099433 -.812370
H .592763 1.056727 .880670
H .592763 1.056727 -.880670

$nbo BOAO SAO SPNAO DMPNAO DMNAO DMMO DMAO AOMO AOPNAO AONAO DETAIL ARCHIVE FILE=mol97.gen* AOINFO NPA $end
