%mem=25GB
%chk=mol119.chk

#RHF/STO-3G int=nobasistransform Symmetry=None 5D 7F Pop=NBO7Read 

mol119-NBO

0 1
C .000000 .437714 .000000
C 1.191923 -.145087 .000000
F -1.148929 -.278332 .000000
H -.186445 1.505778 .000000
H 1.291348 -1.222833 .000000
H 2.083924 .466279 .000000

$nbo BOAO SAO SPNAO DMPNAO DMNAO DMMO DMAO AOMO AOPNAO AONAO DETAIL ARCHIVE FILE=mol119.gen* AOINFO NPA $end
