%mem=25GB
%chk=mol91.chk

#RHF/STO-3G int=nobasistransform Symmetry=None 5D 7F Pop=NBO7Read 

mol91-NBO

0 1
C .000000 .000000 .000000
C .000000 .762014 1.265752
C .000000 -.762014 1.265752
C .762014 .000000 -1.265752
C -.762014 .000000 -1.265752
H -.914023 1.265075 1.568090
H .914023 1.265075 1.568090
H -.914023 -1.265075 1.568090
H .914023 -1.265075 1.568090
H 1.265075 -.914023 -1.568090
H 1.265075 .914023 -1.568090
H -1.265075 -.914023 -1.568090
H -1.265075 .914023 -1.568090

$nbo BOAO SAO SPNAO DMPNAO DMNAO DMMO DMAO AOMO AOPNAO AONAO DETAIL ARCHIVE FILE=mol91.gen* AOINFO NPA $end
