%mem=25GB
%chk=mol118.chk

#RHF/6-31G* int=nobasistransform Symmetry=None 5D 7F Pop=NBO7Read 

mol118-NBO

0 1
C .000000 1.366668 -.513713
S .000000 .000000 .664273
C .000000 -1.366668 -.513713
H .000000 2.296687 .057284
H .891644 1.345680 -1.144596
H -.891644 1.345680 -1.144596
H .000000 -2.296687 .057284
H -.891644 -1.345680 -1.144596
H .891644 -1.345680 -1.144596

$nbo BOAO SAO SPNAO DMPNAO DMNAO DMMO DMAO AOMO AOPNAO AONAO DETAIL ARCHIVE FILE=mol118.gen* AOINFO NPA $end
