%mem=25GB
%chk=mol66.chk

#RHF/STO-3G int=nobasistransform Symmetry=None 5D 7F Pop=NBO7Read 

mol66-NBO

0 1
N .000000 .000000 -1.231969
N .000000 .000000 -.060851
O .000000 .000000 1.131218

$nbo BOAO SAO SPNAO DMPNAO DMNAO DMMO DMAO AOMO AOPNAO AONAO DETAIL ARCHIVE FILE=mol66.gen* AOINFO NPA $end
