%mem=25GB
%chk=mol88.chk

#RHF/STO-3G int=nobasistransform Symmetry=None 5D 7F Pop=NBO7Read 

mol88-NBO

0 1
C .000000 .000000 1.458807
C .000000 .000000 .119588
H .000000 .924302 2.028409
H .000000 -.924302 2.028409
C .000000 1.272683 -.678803
H .000000 2.153042 -.031588
H .880211 1.323542 -1.329592
H -.880211 1.323542 -1.329592
C .000000 -1.272683 -.678803
H .000000 -2.153042 -.031588
H -.880211 -1.323542 -1.329592
H .880211 -1.323542 -1.329592

$nbo BOAO SAO SPNAO DMPNAO DMNAO DMMO DMAO AOMO AOPNAO AONAO DETAIL ARCHIVE FILE=mol88.gen* AOINFO NPA $end
