%mem=25GB
%chk=mol77.chk

#RHF/6-31G* int=nobasistransform Symmetry=None 5D 7F Pop=NBO7Read 

mol77-NBO

0 1
C .000000 .000000 .000000
C .000000 .000000 1.311190
C .000000 .000000 -1.311190
H .000000 .926778 1.876642
H .000000 -.926778 1.876642
H .926778 .000000 -1.876642
H -.926778 .000000 -1.876642

$nbo BOAO SAO SPNAO DMPNAO DMNAO DMMO DMAO AOMO AOPNAO AONAO DETAIL ARCHIVE FILE=mol77.gen* AOINFO NPA $end
