%mem=25GB
%chk=mol123.chk

#RHF/6-31G* int=nobasistransform Symmetry=None 5D 7F Pop=NBO7Read 

mol123-NBO

0 1
O .000000 .000000 1.405591
C .000000 .000000 .179060
C .000000 1.285490 -.616342
C .000000 -1.285490 -.616342
H .000000 2.134917 .066535
H .000000 -2.134917 .066535
H -.881086 1.331548 -1.264013
H .881086 1.331548 -1.264013
H .881086 -1.331548 -1.264013
H -.881086 -1.331548 -1.264013

$nbo BOAO SAO SPNAO DMPNAO DMNAO DMMO DMAO AOMO AOPNAO AONAO DETAIL ARCHIVE FILE=mol123.gen* AOINFO NPA $end
