%mem=25GB
%chk=LiCH3.chk

#OPT=VeryTight INT=UltraFine RHF/STO-3G Pop=NBO7Read

NBO-LiCH3

0 1
 C     0.000000     0.000000     0.000000
Li     0.000000     0.000000     2.009000
 H     0.999837     0.000000    -0.416192
 H    -0.499917     0.865885    -0.416192
 H    -0.499917    -0.865885    -0.416192

$nbo BOAO SAO SPNAO DMPNAO DMNAO DMMO DMAO AOMO AOPNAO AONAO AONO DETAIL ARCHIVE FILE=LiCH3 AOINFO NPA $end
