%mem=25GB
%chk=mol33.chk

#RHF/6-31G* int=nobasistransform Symmetry=None 5D 7F Pop=NBO7Read 

mol33-NBO

0 1
N .000000 .718959 -.077687
N .000000 -.718959 -.077687
H .211082 1.092752 .847887
H -.948214 1.005026 -.304078
H -.211082 -1.092752 .847887
H .948214 -1.005026 -.304078

$nbo BOAO SAO SPNAO DMPNAO DMNAO DMMO DMAO AOMO AOPNAO AONAO DETAIL ARCHIVE FILE=mol33.gen* AOINFO NPA $end
